#define OPTYPE_IMMED    1
#define OPTYPE_SINGLE   2
#define OPTYPE_SHIFT    3
#define OPTYPE_JUMP     4
#define OPTYPE_DUAL1    5
#define OPTYPE_DUAL2    6

struct
{
    WORD index;
    WORD type;
    WORD opMask;
    BOOL store;
    BOOL hasDest;
    BOOL cmpZero;
}
opGroup[64] =
{
    { 0x00, OPTYPE_IMMED,   0xFFE0, 1, 0, 1 },
    { 0x01, OPTYPE_SINGLE,  0xFFC0, 1, 0, 1 },
    { 0x02, OPTYPE_SHIFT,   0xFF00, 1, 0, 1 },
    { 0x03, 0,              0xFFFF, 0, 0, 0 },
    { 0x04, OPTYPE_JUMP,    0xFF00, 0, 0, 0 },
    { 0x05, OPTYPE_JUMP,    0xFF00, 0, 0, 0 },
    { 0x06, OPTYPE_JUMP,    0xFF00, 0, 0, 0 },
    { 0x07, OPTYPE_JUMP,    0xFF00, 0, 0, 0 },
    { 0x08, OPTYPE_DUAL1,   0xFC00, 1, 1, 1 },
    { 0x09, OPTYPE_DUAL1,   0xFC00, 1, 1, 1 },
    { 0x0A, OPTYPE_DUAL1,   0xFC00, 1, 1, 1 },
    { 0x0B, OPTYPE_DUAL1,   0xFC00, 1, 1, 1 },
    { 0x0C, OPTYPE_DUAL1,   0xFC00, 1, 1, 1 },
    { 0x0D, OPTYPE_DUAL1,   0xFC00, 1, 1, 1 },
    { 0x0E, OPTYPE_DUAL1,   0xFC00, 1, 1, 1 },
    { 0x0F, OPTYPE_DUAL1,   0xFC00, 1, 1, 1 },

    8, OP_COC
/* 0x2000 */ { 0x00, OP_COC,    0xFC00
    9
/* 0x2400 */ { 0x00, OP_CZC,
    A
/* 0x2800 */ { 0x00, OP_XOR,
    B
/* 0x2C00 */ { 0x00, OP_XOP,
    C
/* 0x3000 */ { 0x00, OP_LDCR,
    D
/* 0x3400 */ { 0x00, OP_STCR,
    E
/* 0x3800 */ { 0x00, OP_MPY,
    F
/* 0x3C00 */ { 0x00, OP_DIV,
    10
    11
    12
    13
    14
    15
    16
    17
OP_SZC  0x4000, 0xF000
    18
    19
    1A
    1B
    1C
    1D
    1E
    1F
OP_S    0x6000
    20
    21
    22
    23
    24
    25
    26
    27
OP_C    0x8000
    28
    29
    2A
    2B
    2C
    2D
    2E
    2F
OP_A    0xA000
    30
    31
    32
    33
    34
    35
    36
    37
OP_MOV  0xC000
    38
    39
    3A
    3B
    3C
    3D
    3E
    3F
OP_SOC  0xE000

